Version 4
SHEET 1 2344 1108
WIRE -80 -224 -1648 -224
WIRE 800 -128 704 -128
WIRE 1104 -128 864 -128
WIRE 704 -96 704 -128
WIRE 1104 -64 1104 -128
WIRE 1216 -64 1104 -64
WIRE 1344 -64 1216 -64
WIRE 1440 -64 1344 -64
WIRE 1472 -64 1440 -64
WIRE 1552 -64 1472 -64
WIRE 1648 -64 1552 -64
WIRE 1728 -64 1648 -64
WIRE 1872 -64 1808 -64
WIRE 1984 -64 1872 -64
WIRE 2112 -64 1984 -64
WIRE 1216 -48 1216 -64
WIRE 1344 -48 1344 -64
WIRE 1440 -48 1440 -64
WIRE 1552 -48 1552 -64
WIRE 1648 -48 1648 -64
WIRE 1872 -48 1872 -64
WIRE -496 -32 -512 -32
WIRE -416 -32 -432 -32
WIRE 2112 -16 2112 -64
WIRE -80 0 -80 -224
WIRE -80 0 -96 0
WIRE -400 16 -464 16
WIRE -304 16 -320 16
WIRE -656 32 -1344 32
WIRE -512 32 -512 -32
WIRE -512 32 -528 32
WIRE -80 32 -96 32
WIRE 704 48 704 -16
WIRE 960 48 704 48
WIRE -656 64 -1088 64
WIRE -464 64 -464 16
WIRE -464 64 -528 64
WIRE -656 96 -832 96
WIRE -416 96 -416 -32
WIRE -416 96 -528 96
WIRE -80 96 -80 32
WIRE -80 96 -416 96
WIRE 32 96 -80 96
WIRE 192 96 112 96
WIRE 448 96 272 96
WIRE -1648 112 -1648 -224
WIRE -1344 112 -1344 32
WIRE -1088 112 -1088 64
WIRE 960 112 960 48
WIRE 1216 112 1216 96
WIRE 1216 112 960 112
WIRE 1344 112 1344 96
WIRE 1344 112 1216 112
WIRE 1440 112 1440 96
WIRE 1440 112 1344 112
WIRE 1552 112 1552 96
WIRE 1552 112 1440 112
WIRE 1648 112 1648 96
WIRE 1648 112 1552 112
WIRE 1872 112 1872 96
WIRE 1872 112 1648 112
WIRE 2112 112 2112 64
WIRE 2112 112 1872 112
WIRE -656 128 -720 128
WIRE -464 128 -528 128
WIRE -80 144 -80 96
WIRE -32 144 -80 144
WIRE -16 144 -32 144
WIRE -832 160 -832 96
WIRE -80 160 -80 144
WIRE -80 160 -96 160
WIRE 960 160 960 112
WIRE 960 160 704 160
WIRE -464 176 -464 128
WIRE -400 176 -464 176
WIRE -304 176 -320 176
WIRE 2112 176 2112 112
WIRE -80 192 -96 192
WIRE 448 192 448 96
WIRE 704 192 704 160
WIRE -832 256 -832 240
WIRE -720 256 -720 128
WIRE -720 256 -832 256
WIRE -1648 272 -1648 192
WIRE -1344 272 -1344 192
WIRE -1344 272 -1648 272
WIRE -1088 272 -1088 192
WIRE -1088 272 -1344 272
WIRE -832 288 -832 256
WIRE -80 288 -80 192
WIRE -1648 320 -1648 272
WIRE 448 320 448 256
WIRE 704 320 704 272
WIRE 800 320 704 320
WIRE 1104 320 1104 -64
WIRE 1104 320 864 320
WIRE -80 416 -80 368
FLAG 1984 -64 vout
FLAG 2112 176 0
FLAG 448 320 0
FLAG -32 144 Vs
FLAG 448 96 Vcr
FLAG 1472 -64 vout0
FLAG -80 416 0
FLAG -1648 320 0
FLAG -832 288 0
SYMBOL ind 16 112 R270
WINDOW 0 32 56 VTop 2
WINDOW 3 5 56 VBottom 2
SYMATTR InstName Lr
SYMATTR Value {Lr}
SYMBOL ind2 176 112 R270
WINDOW 0 32 56 VTop 2
WINDOW 3 4 56 VBottom 2
SYMATTR InstName Lm
SYMATTR Value {Lm}
SYMATTR Type ind
SYMBOL cap 464 256 R180
WINDOW 0 24 56 Left 2
WINDOW 3 24 8 Left 2
SYMATTR InstName Cr
SYMATTR Value {Cr}
SYMBOL cap 1200 32 R0
SYMATTR InstName Cout
SYMATTR Value 220µ
SYMATTR SpiceLine IC={Vout0}
SYMBOL ind2 688 -112 R0
SYMATTR InstName L1
SYMATTR Value {Ns * Ns / Np / Np * Lm}
SYMATTR Type ind
SYMBOL ind2 688 176 R0
SYMATTR InstName L2
SYMATTR Value {Ns * Ns / Np / Np * Lm}
SYMATTR Type ind
SYMBOL voltage -1648 96 R0
WINDOW 123 0 0 Left 0
WINDOW 39 -52 157 Left 2
SYMATTR InstName V1
SYMATTR Value {Vin}
SYMBOL voltage -1344 96 R0
WINDOW 123 0 0 Left 0
WINDOW 39 24 124 Left 2
WINDOW 3 -296 -148 Left 2
SYMATTR SpiceLine Rser=1
SYMATTR Value PULSE(0 5 {deadtime / 2} 1n 1n {0.5 / fs - deadtime} {1/fs})
SYMATTR InstName V2
SYMBOL voltage -1088 96 R0
WINDOW 123 0 0 Left 0
WINDOW 39 24 124 Left 2
WINDOW 3 -375 310 Left 2
SYMATTR SpiceLine Rser=1
SYMATTR Value PULSE(0 5 {0.5 / fs + deadtime / 2} 1n 1n {0.5 / fs - deadtime} {1/fs})
SYMATTR InstName V3
SYMBOL current 2112 -16 R0
WINDOW 123 0 0 Left 0
WINDOW 39 0 0 Left 0
SYMATTR InstName Iout
SYMATTR Value {Iout}
SYMBOL schottky 800 -112 R270
WINDOW 0 32 32 VTop 2
WINDOW 3 0 32 VBottom 2
SYMATTR InstName D1
SYMATTR Value RBR40NS30A
SYMATTR Description Diode
SYMATTR Type diode
SYMBOL schottky 800 336 R270
WINDOW 0 32 32 VTop 2
WINDOW 3 0 32 VBottom 2
SYMATTR InstName D2
SYMATTR Value RBR40NS30A
SYMATTR Description Diode
SYMATTR Type diode
SYMBOL res 1200 -64 R0
SYMATTR InstName R1
SYMATTR Value 10m
SYMBOL cap 1632 32 R0
SYMATTR InstName Cout1
SYMATTR Value 10µ
SYMATTR SpiceLine IC={Vout0}
SYMBOL res 1632 -64 R0
SYMATTR InstName R2
SYMATTR Value 1m
SYMBOL cap 1536 32 R0
SYMATTR InstName Cout2
SYMATTR Value 10µ
SYMATTR SpiceLine IC={Vout0}
SYMBOL res 1536 -64 R0
SYMATTR InstName R3
SYMATTR Value 1m
SYMBOL cap 1424 32 R0
SYMATTR InstName Cout3
SYMATTR Value 10µ
SYMATTR SpiceLine IC={Vout0}
SYMBOL res 1424 -64 R0
SYMATTR InstName R4
SYMATTR Value 1m
SYMBOL cap 1328 32 R0
SYMATTR InstName Cout4
SYMATTR Value 10µ
SYMATTR SpiceLine IC={Vout0}
SYMBOL res 1328 -64 R0
SYMATTR InstName R5
SYMATTR Value 1m
SYMBOL ind 1712 -48 R270
WINDOW 0 32 56 VTop 2
WINDOW 3 5 56 VBottom 2
SYMATTR InstName L3
SYMATTR Value 100n
SYMBOL cap 1856 32 R0
SYMATTR InstName Cout5
SYMATTR Value 100µ
SYMATTR SpiceLine IC={Vout0}
SYMBOL res 1856 -64 R0
SYMATTR InstName R6
SYMATTR Value 1m
SYMBOL 2ED2388S06F -592 80 R0
SYMATTR InstName U1
SYMBOL IPN70R600P7S_L0 -208 16 R0
SYMATTR InstName U2
SYMBOL IPN70R600P7S_L0 -208 176 R0
SYMATTR InstName U3
SYMBOL cap -432 -48 R90
WINDOW 0 0 32 VBottom 2
WINDOW 3 32 32 VTop 2
SYMATTR InstName C1
SYMATTR Value 100n
SYMBOL voltage -832 144 R0
WINDOW 123 0 0 Left 0
WINDOW 39 0 0 Left 0
SYMATTR InstName V4
SYMATTR Value 15
SYMBOL res -304 160 R90
WINDOW 0 0 56 VBottom 2
WINDOW 3 32 56 VTop 2
SYMATTR InstName R7
SYMATTR Value 0.5
SYMBOL res -304 0 R90
WINDOW 0 0 56 VBottom 2
WINDOW 3 32 56 VTop 2
SYMATTR InstName R8
SYMATTR Value 0.5
SYMBOL res -96 272 R0
SYMATTR InstName R9
SYMATTR Value 0.25
TEXT 32 -8 Left 2 !K Lm L1 L2 0.99
TEXT 56 792 Left 2 !.param Ns = 1
TEXT -368 560 Left 2 !.param Lr=239u
TEXT -368 592 Left 2 !.param Lm=1500u
TEXT -368 624 Left 2 !.param Cr=10n
TEXT 56 528 Left 2 !.param Vin = 385
TEXT -1208 696 Left 2 !.param deadtime=500n
TEXT 56 688 Left 2 !.param Iout=17
TEXT 56 736 Left 2 !.param Vout0 = 12
TEXT 56 640 Left 2 !.param fs=65k
TEXT 56 824 Left 2 !.param Np = 17.5
TEXT 56 584 Left 2 !.tran 0 100u 50u 0.1u
TEXT 56 880 Left 2 ;.step param fs 60k 80k 5k
TEXT 464 536 Left 2 !.meas TRAN vout AVG V(vout)
TEXT 56 912 Left 2 ;.step param Vin list 385 420
