Version 4
SHEET 1 1944 1108
WIRE 800 -128 704 -128
WIRE 1104 -128 864 -128
WIRE -448 -112 -1648 -112
WIRE 704 -96 704 -128
WIRE 1104 -64 1104 -128
WIRE 1296 -64 1104 -64
WIRE 1424 -64 1296 -64
WIRE -448 -32 -448 -112
WIRE -736 -16 -1344 -16
WIRE -608 -16 -736 -16
WIRE 1424 -16 1424 -64
WIRE -1344 16 -1344 -16
WIRE 1296 32 1296 16
WIRE -608 48 -608 -16
WIRE -496 48 -608 48
WIRE 704 48 704 -16
WIRE 960 48 704 48
WIRE -448 80 -448 64
WIRE -208 80 -448 80
WIRE -1648 112 -1648 -112
WIRE -1344 112 -1344 96
WIRE -448 112 -448 80
WIRE -448 112 -1344 112
WIRE -208 112 -208 80
WIRE 32 112 -208 112
WIRE 192 112 112 112
WIRE 448 112 272 112
WIRE 960 112 960 48
WIRE 1296 112 1296 96
WIRE 1296 112 960 112
WIRE 1424 112 1424 64
WIRE 1424 112 1296 112
WIRE -208 128 -208 112
WIRE -208 128 -448 128
WIRE -448 144 -448 128
WIRE -736 160 -1344 160
WIRE -592 160 -736 160
WIRE 960 160 960 112
WIRE 960 160 704 160
WIRE -1344 176 -1344 160
WIRE 1296 176 1296 112
WIRE 704 192 704 160
WIRE 448 208 448 112
WIRE -592 224 -592 160
WIRE -496 224 -592 224
WIRE -1648 272 -1648 192
WIRE -1344 272 -1344 256
WIRE -1344 272 -1648 272
WIRE -544 272 -1344 272
WIRE -544 304 -544 272
WIRE -448 304 -448 240
WIRE 704 320 704 272
WIRE 800 320 704 320
WIRE 1104 320 1104 -64
WIRE 1104 320 864 320
WIRE 448 336 448 272
FLAG 1296 -64 vout
FLAG 1296 176 0
FLAG -544 304 0
FLAG 448 336 0
FLAG -448 304 0
FLAG -736 160 Vg1
FLAG -736 -16 Vg2
FLAG -208 80 Vs
FLAG 448 112 Vcr
SYMBOL ind 16 128 R270
WINDOW 0 32 56 VTop 2
WINDOW 3 5 56 VBottom 2
SYMATTR InstName Lr
SYMATTR Value {Lr}
SYMBOL ind2 176 128 R270
WINDOW 0 32 56 VTop 2
WINDOW 3 4 56 VBottom 2
SYMATTR InstName Lm
SYMATTR Value {Lm}
SYMATTR Type ind
SYMBOL cap 464 272 R180
WINDOW 0 24 56 Left 2
WINDOW 3 24 8 Left 2
SYMATTR InstName Cr
SYMATTR Value {Cr}
SYMBOL cap 1280 32 R0
SYMATTR InstName Cout
SYMATTR Value 2000µ
SYMATTR SpiceLine IC={Vout0}
SYMBOL ind2 688 -112 R0
SYMATTR InstName L1
SYMATTR Value {Ns * Ns / Np / Np * Lm}
SYMATTR Type ind
SYMBOL ind2 688 176 R0
SYMATTR InstName L2
SYMATTR Value {Ns * Ns / Np / Np * Lm}
SYMATTR Type ind
SYMBOL schottky 800 -112 R270
WINDOW 0 32 32 VTop 2
WINDOW 3 0 32 VBottom 2
SYMATTR InstName D1
SYMATTR Value MyIdealDiode
SYMATTR Description Diode
SYMATTR Type diode
SYMBOL schottky 800 336 R270
WINDOW 0 32 32 VTop 2
WINDOW 3 0 32 VBottom 2
SYMATTR InstName D2
SYMATTR Value MyIdealDiode
SYMATTR Description Diode
SYMATTR Type diode
SYMBOL voltage -1648 96 R0
WINDOW 123 0 0 Left 0
WINDOW 39 -52 157 Left 2
SYMATTR InstName V1
SYMATTR Value {Vin}
SYMBOL voltage -1344 0 R0
WINDOW 123 0 0 Left 0
WINDOW 39 24 124 Left 2
SYMATTR SpiceLine Rser=1
SYMATTR InstName V2
SYMATTR Value PULSE(0 15 0 1n 1n {0.5 / fs - deadtime} {1/fs})
SYMBOL voltage -1344 160 R0
WINDOW 123 0 0 Left 0
WINDOW 39 24 124 Left 2
SYMATTR SpiceLine Rser=1
SYMATTR InstName V3
SYMATTR Value PULSE(0 15 {0.5 / fs} 1n 1n {0.5 / fs - deadtime} {1/fs})
SYMBOL nmos -496 144 R0
SYMATTR InstName M1
SYMATTR Value IPP05CN10L
SYMBOL nmos -496 -32 R0
SYMATTR InstName M2
SYMATTR Value IPP05CN10L
SYMBOL current 1424 -16 R0
WINDOW 123 0 0 Left 0
WINDOW 39 0 0 Left 0
SYMATTR InstName Iout
SYMATTR Value {Iout}
SYMBOL res 1280 -80 R0
SYMATTR InstName R1
SYMATTR Value 1µ
TEXT 32 -8 Left 2 !K Lm L1 L2 1
TEXT 56 792 Left 2 !.param Ns = 1
TEXT -368 560 Left 2 !.param Lr = 317u
TEXT -368 592 Left 2 !.param Lm = 1251u
TEXT -368 624 Left 2 !.param Cr = 4.7n
TEXT 56 528 Left 2 !.param Vin = 385
TEXT -1216 336 Left 2 !.param deadtime = 500n
TEXT 56 688 Left 2 !.param Iout = 12.5
TEXT 56 736 Left 2 !.param Vout0 = 12
TEXT 56 640 Left 2 !.param fs = 90k
TEXT 56 824 Left 2 !.param Np = 17.5
TEXT 56 584 Left 2 !.tran 0 5m 4.950m 0.01u
TEXT 680 -272 Left 2 !.model MyIdealDiode D(Ron=1u Roff=1Meg Vfwd=0.1 Vrev=1000)
TEXT 56 880 Left 2 ;.step param fs 80k 140k 2.5k
TEXT 464 536 Left 2 !.meas TRAN vout AVG V(vout)
